<?xml version="1.0" encoding="UTF-8"?>

<!-- generated on 2025-10-16 22:56:28 by Eclipse SUMO netconvert Version 1.23.1
<netconvertConfiguration xmlns:xsi="http://www.w3.org/2001/XMLSchema-instance" xsi:noNamespaceSchemaLocation="http://sumo.dlr.de/xsd/netconvertConfiguration.xsd">

    <input>
        <node-files value="results/sweep_results/sumo_configs/d45_l1_dm1.50/roundabout.nod.xml"/>
        <edge-files value="results/sweep_results/sumo_configs/d45_l1_dm1.50/roundabout.edg.xml"/>
        <type-files value="results/sweep_results/sumo_configs/d45_l1_dm1.50/roundabout.typ.xml"/>
    </input>

    <output>
        <output-file value="results/sweep_results/sumo_configs/d45_l1_dm1.50/roundabout.net.xml"/>
    </output>

    <processing>
        <roundabouts.guess value="true"/>
        <lefthand value="false"/>
    </processing>

    <building_defaults>
        <default.priority value="10"/>
    </building_defaults>

    <junctions>
        <no-turnarounds value="true"/>
        <junctions.corner-detail value="5"/>
    </junctions>

</netconvertConfiguration>
-->

<net version="1.20" junctionCornerDetail="5" limitTurnSpeed="5.50" xmlns:xsi="http://www.w3.org/2001/XMLSchema-instance" xsi:noNamespaceSchemaLocation="http://sumo.dlr.de/xsd/net_file.xsd">

    <location netOffset="222.50,222.50" convBoundary="0.00,0.00,445.00,445.00" origBoundary="-222.50,-222.50,222.50,222.50" projParameter="!"/>

    <type id="approach" priority="10" numLanes="1" speed="12.00"/>
    <type id="exit" priority="10" numLanes="1" speed="12.00"/>
    <type id="ring" priority="15" numLanes="1" speed="6.00"/>

    <edge id=":ring_E_0" function="internal">
        <lane id=":ring_E_0_0" index="0" speed="7.00" length="9.02" shape="251.63,224.10 249.24,224.43 247.38,225.40 246.06,227.03 245.28,229.31"/>
    </edge>
    <edge id=":ring_E_1" function="internal">
        <lane id=":ring_E_1_0" index="0" speed="6.33" length="15.77" shape="251.63,224.10 246.51,223.69 244.81,222.46 246.52,220.40 251.63,217.53"/>
    </edge>
    <edge id=":ring_E_2" function="internal">
        <lane id=":ring_E_2_0" index="0" speed="6.03" length="9.07" shape="244.99,214.21 245.84,216.65 247.24,218.02 249.17,218.31 251.63,217.53"/>
    </edge>
    <edge id=":ring_E_3" function="internal">
        <lane id=":ring_E_3_0" index="0" speed="6.00" length="15.19" shape="244.99,214.21 245.58,217.95 245.86,221.76 245.78,225.57 245.28,229.31"/>
    </edge>
    <edge id=":ring_N_0" function="internal">
        <lane id=":ring_N_0_0" index="0" speed="7.00" length="9.02" shape="220.90,251.63 220.57,249.24 219.60,247.38 217.97,246.06 215.69,245.28"/>
    </edge>
    <edge id=":ring_N_1" function="internal">
        <lane id=":ring_N_1_0" index="0" speed="6.33" length="15.77" shape="220.90,251.63 221.31,246.51 222.54,244.81 224.60,246.52 227.47,251.63"/>
    </edge>
    <edge id=":ring_N_2" function="internal">
        <lane id=":ring_N_2_0" index="0" speed="6.03" length="9.07" shape="230.79,244.99 228.35,245.84 226.98,247.24 226.69,249.17 227.47,251.63"/>
    </edge>
    <edge id=":ring_N_3" function="internal">
        <lane id=":ring_N_3_0" index="0" speed="6.00" length="15.19" shape="230.79,244.99 227.05,245.58 223.24,245.86 219.43,245.78 215.69,245.28"/>
    </edge>
    <edge id=":ring_S_0" function="internal">
        <lane id=":ring_S_0_0" index="0" speed="7.00" length="9.02" shape="224.10,193.37 224.43,195.76 225.40,197.62 227.03,198.94 229.31,199.72"/>
    </edge>
    <edge id=":ring_S_1" function="internal">
        <lane id=":ring_S_1_0" index="0" speed="6.33" length="15.77" shape="224.10,193.37 223.69,198.49 222.46,200.19 220.40,198.48 217.53,193.37"/>
    </edge>
    <edge id=":ring_S_2" function="internal">
        <lane id=":ring_S_2_0" index="0" speed="6.03" length="9.07" shape="214.21,200.01 216.65,199.16 218.02,197.76 218.31,195.83 217.53,193.37"/>
    </edge>
    <edge id=":ring_S_3" function="internal">
        <lane id=":ring_S_3_0" index="0" speed="6.00" length="15.19" shape="214.21,200.01 217.95,199.42 221.76,199.14 225.57,199.22 229.31,199.72"/>
    </edge>
    <edge id=":ring_W_0" function="internal">
        <lane id=":ring_W_0_0" index="0" speed="6.03" length="9.07" shape="200.01,230.79 199.16,228.35 197.76,226.98 195.83,226.69 193.37,227.47"/>
    </edge>
    <edge id=":ring_W_1" function="internal">
        <lane id=":ring_W_1_0" index="0" speed="6.00" length="15.19" shape="200.01,230.79 199.42,227.05 199.14,223.24 199.22,219.43 199.72,215.69"/>
    </edge>
    <edge id=":ring_W_2" function="internal">
        <lane id=":ring_W_2_0" index="0" speed="7.00" length="9.02" shape="193.37,220.90 195.76,220.57 197.62,219.60 198.94,217.97 199.72,215.69"/>
    </edge>
    <edge id=":ring_W_3" function="internal">
        <lane id=":ring_W_3_0" index="0" speed="6.33" length="15.77" shape="193.37,220.90 198.49,221.31 200.19,222.54 198.48,224.60 193.37,227.47"/>
    </edge>

    <edge id="approach_E" from="spawn_E" to="ring_E" priority="10" type="approach">
        <lane id="approach_E_0" index="0" speed="12.00" length="193.37" shape="445.00,224.10 251.63,224.10"/>
    </edge>
    <edge id="approach_N" from="spawn_N" to="ring_N" priority="10" type="approach">
        <lane id="approach_N_0" index="0" speed="12.00" length="193.37" shape="220.90,445.00 220.90,251.63"/>
    </edge>
    <edge id="approach_S" from="spawn_S" to="ring_S" priority="10" type="approach">
        <lane id="approach_S_0" index="0" speed="12.00" length="193.37" shape="224.10,0.00 224.10,193.37"/>
    </edge>
    <edge id="approach_W" from="spawn_W" to="ring_W" priority="10" type="approach">
        <lane id="approach_W_0" index="0" speed="12.00" length="193.37" shape="0.00,220.90 193.37,220.90"/>
    </edge>
    <edge id="exit_E" from="ring_E" to="sink_E" priority="10" type="exit">
        <lane id="exit_E_0" index="0" speed="12.00" length="23.18" shape="251.63,217.53 272.52,207.47"/>
    </edge>
    <edge id="exit_N" from="ring_N" to="sink_N" priority="10" type="exit">
        <lane id="exit_N_0" index="0" speed="12.00" length="23.18" shape="227.47,251.63 237.53,272.52"/>
    </edge>
    <edge id="exit_S" from="ring_S" to="sink_S" priority="10" type="exit">
        <lane id="exit_S_0" index="0" speed="12.00" length="23.18" shape="217.53,193.37 207.47,172.48"/>
    </edge>
    <edge id="exit_W" from="ring_W" to="sink_W" priority="10" type="exit">
        <lane id="exit_W_0" index="0" speed="12.00" length="23.18" shape="193.37,227.47 172.48,237.53"/>
    </edge>
    <edge id="ring_E" from="ring_E" to="ring_S" priority="15" type="ring" shape="245.00,222.50 243.29,231.11 238.41,238.41 231.11,243.29 222.50,245.00 213.89,243.29 206.59,238.41 201.71,231.11 200.00,222.50 201.71,213.89 206.59,206.59 213.89,201.71 222.50,200.00">
        <lane id="ring_E_0" index="0" speed="6.00" length="97.60" shape="245.28,229.31 244.80,231.73 239.56,239.56 231.73,244.80 222.50,246.63 213.27,244.80 205.44,239.56 200.20,231.73 198.37,222.50 200.20,213.27 205.44,205.44 213.27,200.20 214.21,200.01"/>
    </edge>
    <edge id="ring_N" from="ring_N" to="ring_E" priority="15" type="ring" shape="222.50,245.00 213.89,243.29 206.59,238.41 201.71,231.11 200.00,222.50 201.71,213.89 206.59,206.59 213.89,201.71 222.50,200.00 231.11,201.71 238.41,206.59 243.29,213.89 245.00,222.50">
        <lane id="ring_N_0" index="0" speed="6.00" length="97.60" shape="215.69,245.28 213.27,244.80 205.44,239.56 200.20,231.73 198.37,222.50 200.20,213.27 205.44,205.44 213.27,200.20 222.50,198.37 231.73,200.20 239.56,205.44 244.80,213.27 244.99,214.21"/>
    </edge>
    <edge id="ring_S" from="ring_S" to="ring_W" priority="15" type="ring" shape="222.50,200.00 231.11,201.71 238.41,206.59 243.29,213.89 245.00,222.50 243.29,231.11 238.41,238.41 231.11,243.29 222.50,245.00 213.89,243.29 206.59,238.41 201.71,231.11 200.00,222.50">
        <lane id="ring_S_0" index="0" speed="6.00" length="97.60" shape="229.31,199.72 231.73,200.20 239.56,205.44 244.80,213.27 246.63,222.50 244.80,231.73 239.56,239.56 231.73,244.80 222.50,246.63 213.27,244.80 205.44,239.56 200.20,231.73 200.01,230.79"/>
    </edge>
    <edge id="ring_W" from="ring_W" to="ring_N" priority="15" type="ring" shape="200.00,222.50 201.71,213.89 206.59,206.59 213.89,201.71 222.50,200.00 231.11,201.71 238.41,206.59 243.29,213.89 245.00,222.50 243.29,231.11 238.41,238.41 231.11,243.29 222.50,245.00">
        <lane id="ring_W_0" index="0" speed="6.00" length="97.60" shape="199.72,215.69 200.20,213.27 205.44,205.44 213.27,200.20 222.50,198.37 231.73,200.20 239.56,205.44 244.80,213.27 246.63,222.50 244.80,231.73 239.56,239.56 231.73,244.80 230.79,244.99"/>
    </edge>

    <junction id="ring_E" type="priority" x="245.00" y="222.50" incLanes="approach_E_0 ring_N_0" intLanes=":ring_E_0_0 :ring_E_1_0 :ring_E_2_0 :ring_E_3_0" shape="251.63,225.70 251.63,222.50 252.33,218.97 250.94,216.09 248.85,216.62 248.04,216.41 247.39,215.89 246.89,215.05 246.55,213.90 243.42,214.52 244.03,217.57 244.43,219.85 244.62,221.76 244.57,223.67 244.27,225.96 243.71,229.00 246.85,229.62 247.73,227.44 248.43,226.68 249.32,226.14 250.38,225.81">
        <request index="0" response="1000" foes="1000" cont="0"/>
        <request index="1" response="0100" foes="0100" cont="0"/>
        <request index="2" response="0000" foes="0010" cont="0"/>
        <request index="3" response="0000" foes="0001" cont="0"/>
    </junction>
    <junction id="ring_N" type="priority" x="222.50" y="245.00" incLanes="approach_N_0 ring_W_0" intLanes=":ring_N_0_0 :ring_N_1_0 :ring_N_2_0 :ring_N_3_0" shape="219.30,251.63 222.50,251.63 226.03,252.33 228.91,250.94 228.38,248.85 228.59,248.04 229.11,247.39 229.95,246.89 231.10,246.55 230.48,243.42 227.43,244.03 225.15,244.43 223.24,244.62 221.33,244.57 219.04,244.27 216.00,243.71 215.38,246.85 217.56,247.73 218.32,248.43 218.86,249.32 219.19,250.38">
        <request index="0" response="1000" foes="1000" cont="0"/>
        <request index="1" response="0100" foes="0100" cont="0"/>
        <request index="2" response="0000" foes="0010" cont="0"/>
        <request index="3" response="0000" foes="0001" cont="0"/>
    </junction>
    <junction id="ring_S" type="priority" x="222.50" y="200.00" incLanes="approach_S_0 ring_E_0" intLanes=":ring_S_0_0 :ring_S_1_0 :ring_S_2_0 :ring_S_3_0" shape="229.00,201.29 229.62,198.15 227.44,197.27 226.68,196.57 226.14,195.68 225.81,194.62 225.70,193.37 222.50,193.37 218.97,192.67 216.09,194.06 216.62,196.15 216.41,196.96 215.89,197.61 215.05,198.11 213.90,198.45 214.52,201.58 217.57,200.97 219.85,200.57 221.76,200.38 223.67,200.43 225.96,200.73">
        <request index="0" response="1000" foes="1000" cont="0"/>
        <request index="1" response="0100" foes="0100" cont="0"/>
        <request index="2" response="0000" foes="0010" cont="0"/>
        <request index="3" response="0000" foes="0001" cont="0"/>
    </junction>
    <junction id="ring_W" type="priority" x="200.00" y="222.50" incLanes="ring_S_0 approach_W_0" intLanes=":ring_W_0_0 :ring_W_1_0 :ring_W_2_0 :ring_W_3_0" shape="198.45,231.10 201.58,230.48 200.97,227.43 200.57,225.15 200.38,223.24 200.43,221.33 200.73,219.04 201.29,216.00 198.15,215.38 197.27,217.56 196.57,218.32 195.68,218.86 194.62,219.19 193.37,219.30 193.37,222.50 192.67,226.03 194.06,228.91 196.15,228.38 196.96,228.59 197.61,229.11 198.11,229.95">
        <request index="0" response="0000" foes="1000" cont="0"/>
        <request index="1" response="0000" foes="0100" cont="0"/>
        <request index="2" response="0010" foes="0010" cont="0"/>
        <request index="3" response="0001" foes="0001" cont="0"/>
    </junction>
    <junction id="sink_E" type="dead_end" x="273.21" y="208.91" incLanes="exit_E_0" intLanes="" shape="271.82,206.03 273.21,208.91"/>
    <junction id="sink_N" type="dead_end" x="236.09" y="273.21" incLanes="exit_N_0" intLanes="" shape="238.97,271.82 236.09,273.21"/>
    <junction id="sink_S" type="dead_end" x="208.91" y="171.79" incLanes="exit_S_0" intLanes="" shape="206.03,173.18 208.91,171.79"/>
    <junction id="sink_W" type="dead_end" x="171.79" y="236.09" incLanes="exit_W_0" intLanes="" shape="173.18,238.97 171.79,236.09"/>
    <junction id="spawn_E" type="dead_end" x="445.00" y="222.50" incLanes="" intLanes="" shape="445.00,222.50 445.00,225.70"/>
    <junction id="spawn_N" type="dead_end" x="222.50" y="445.00" incLanes="" intLanes="" shape="222.50,445.00 219.30,445.00"/>
    <junction id="spawn_S" type="dead_end" x="222.50" y="0.00" incLanes="" intLanes="" shape="222.50,0.00 225.70,0.00"/>
    <junction id="spawn_W" type="dead_end" x="0.00" y="222.50" incLanes="" intLanes="" shape="0.00,222.50 0.00,219.30"/>

    <connection from="approach_E" to="ring_E" fromLane="0" toLane="0" via=":ring_E_0_0" dir="r" state="m"/>
    <connection from="approach_E" to="exit_E" fromLane="0" toLane="0" via=":ring_E_1_0" dir="l" state="m"/>
    <connection from="approach_N" to="ring_N" fromLane="0" toLane="0" via=":ring_N_0_0" dir="r" state="m"/>
    <connection from="approach_N" to="exit_N" fromLane="0" toLane="0" via=":ring_N_1_0" dir="l" state="m"/>
    <connection from="approach_S" to="ring_S" fromLane="0" toLane="0" via=":ring_S_0_0" dir="r" state="m"/>
    <connection from="approach_S" to="exit_S" fromLane="0" toLane="0" via=":ring_S_1_0" dir="l" state="m"/>
    <connection from="approach_W" to="ring_W" fromLane="0" toLane="0" via=":ring_W_2_0" dir="r" state="m"/>
    <connection from="approach_W" to="exit_W" fromLane="0" toLane="0" via=":ring_W_3_0" dir="l" state="m"/>
    <connection from="ring_E" to="exit_S" fromLane="0" toLane="0" via=":ring_S_2_0" dir="r" state="M"/>
    <connection from="ring_E" to="ring_S" fromLane="0" toLane="0" via=":ring_S_3_0" dir="s" state="M"/>
    <connection from="ring_N" to="exit_E" fromLane="0" toLane="0" via=":ring_E_2_0" dir="r" state="M"/>
    <connection from="ring_N" to="ring_E" fromLane="0" toLane="0" via=":ring_E_3_0" dir="s" state="M"/>
    <connection from="ring_S" to="exit_W" fromLane="0" toLane="0" via=":ring_W_0_0" dir="r" state="M"/>
    <connection from="ring_S" to="ring_W" fromLane="0" toLane="0" via=":ring_W_1_0" dir="s" state="M"/>
    <connection from="ring_W" to="exit_N" fromLane="0" toLane="0" via=":ring_N_2_0" dir="r" state="M"/>
    <connection from="ring_W" to="ring_N" fromLane="0" toLane="0" via=":ring_N_3_0" dir="s" state="M"/>

    <connection from=":ring_E_0" to="ring_E" fromLane="0" toLane="0" dir="r" state="M"/>
    <connection from=":ring_E_1" to="exit_E" fromLane="0" toLane="0" dir="l" state="M"/>
    <connection from=":ring_E_2" to="exit_E" fromLane="0" toLane="0" dir="r" state="M"/>
    <connection from=":ring_E_3" to="ring_E" fromLane="0" toLane="0" dir="s" state="M"/>
    <connection from=":ring_N_0" to="ring_N" fromLane="0" toLane="0" dir="r" state="M"/>
    <connection from=":ring_N_1" to="exit_N" fromLane="0" toLane="0" dir="l" state="M"/>
    <connection from=":ring_N_2" to="exit_N" fromLane="0" toLane="0" dir="r" state="M"/>
    <connection from=":ring_N_3" to="ring_N" fromLane="0" toLane="0" dir="s" state="M"/>
    <connection from=":ring_S_0" to="ring_S" fromLane="0" toLane="0" dir="r" state="M"/>
    <connection from=":ring_S_1" to="exit_S" fromLane="0" toLane="0" dir="l" state="M"/>
    <connection from=":ring_S_2" to="exit_S" fromLane="0" toLane="0" dir="r" state="M"/>
    <connection from=":ring_S_3" to="ring_S" fromLane="0" toLane="0" dir="s" state="M"/>
    <connection from=":ring_W_0" to="exit_W" fromLane="0" toLane="0" dir="r" state="M"/>
    <connection from=":ring_W_1" to="ring_W" fromLane="0" toLane="0" dir="s" state="M"/>
    <connection from=":ring_W_2" to="ring_W" fromLane="0" toLane="0" dir="r" state="M"/>
    <connection from=":ring_W_3" to="exit_W" fromLane="0" toLane="0" dir="l" state="M"/>

</net>
