<?xml version="1.0" encoding="UTF-8"?>
<nodes>
    <node id="ring_N" x="0.00" y="17.50" type="priority"/>
    <node id="spawn_N" x="0.00" y="217.50" type="priority"/>
    <node id="sink_N" x="12.29" y="45.88" type="priority"/>
    <node id="ring_E" x="17.50" y="0.00" type="priority"/>
    <node id="spawn_E" x="217.50" y="0.00" type="priority"/>
    <node id="sink_E" x="45.88" y="-12.29" type="priority"/>
    <node id="ring_S" x="-0.00" y="-17.50" type="priority"/>
    <node id="spawn_S" x="-0.00" y="-217.50" type="priority"/>
    <node id="sink_S" x="-12.29" y="-45.88" type="priority"/>
    <node id="ring_W" x="-17.50" y="0.00" type="priority"/>
    <node id="spawn_W" x="-217.50" y="0.00" type="priority"/>
    <node id="sink_W" x="-45.88" y="12.29" type="priority"/>
</nodes>
