<?xml version="1.0" encoding="UTF-8"?>
<nodes>
    <node id="ring_N" x="0.00" y="20.00" type="priority"/>
    <node id="spawn_N" x="0.00" y="220.00" type="priority"/>
    <node id="sink_N" x="12.94" y="48.30" type="priority"/>
    <node id="ring_E" x="20.00" y="0.00" type="priority"/>
    <node id="spawn_E" x="220.00" y="0.00" type="priority"/>
    <node id="sink_E" x="48.30" y="-12.94" type="priority"/>
    <node id="ring_S" x="-0.00" y="-20.00" type="priority"/>
    <node id="spawn_S" x="-0.00" y="-220.00" type="priority"/>
    <node id="sink_S" x="-12.94" y="-48.30" type="priority"/>
    <node id="ring_W" x="-20.00" y="0.00" type="priority"/>
    <node id="spawn_W" x="-220.00" y="0.00" type="priority"/>
    <node id="sink_W" x="-48.30" y="12.94" type="priority"/>
</nodes>
