<?xml version="1.0" encoding="UTF-8"?>
<edges>
    <edge id="approach_N" from="spawn_N" to="ring_N" type="approach" numLanes="1" speed="12.00"/>
    <edge id="approach_E" from="spawn_E" to="ring_E" type="approach" numLanes="1" speed="12.00"/>
    <edge id="approach_S" from="spawn_S" to="ring_S" type="approach" numLanes="1" speed="12.00"/>
    <edge id="approach_W" from="spawn_W" to="ring_W" type="approach" numLanes="1" speed="12.00"/>
    <edge id="ring_N" from="ring_N" to="ring_E" type="ring" numLanes="2" speed="6.63" shape="0.00,27.50 -10.52,25.41 -19.45,19.45 -25.41,10.52 -27.50,0.00 -25.41,-10.52 -19.45,-19.45 -10.52,-25.41 -0.00,-27.50 10.52,-25.41 19.45,-19.45 25.41,-10.52 27.50,-0.00"/>
    <edge id="ring_E" from="ring_E" to="ring_S" type="ring" numLanes="2" speed="6.63" shape="27.50,0.00 25.41,10.52 19.45,19.45 10.52,25.41 0.00,27.50 -10.52,25.41 -19.45,19.45 -25.41,10.52 -27.50,0.00 -25.41,-10.52 -19.45,-19.45 -10.52,-25.41 -0.00,-27.50"/>
    <edge id="ring_S" from="ring_S" to="ring_W" type="ring" numLanes="2" speed="6.63" shape="-0.00,-27.50 10.52,-25.41 19.45,-19.45 25.41,-10.52 27.50,-0.00 25.41,10.52 19.45,19.45 10.52,25.41 0.00,27.50 -10.52,25.41 -19.45,19.45 -25.41,10.52 -27.50,0.00"/>
    <edge id="ring_W" from="ring_W" to="ring_N" type="ring" numLanes="2" speed="6.63" shape="-27.50,0.00 -25.41,-10.52 -19.45,-19.45 -10.52,-25.41 -0.00,-27.50 10.52,-25.41 19.45,-19.45 25.41,-10.52 27.50,-0.00 25.41,10.52 19.45,19.45 10.52,25.41 0.00,27.50"/>
    <edge id="exit_N" from="ring_N" to="sink_N" type="exit" numLanes="1" speed="12.00"/>
    <edge id="exit_E" from="ring_E" to="sink_E" type="exit" numLanes="1" speed="12.00"/>
    <edge id="exit_S" from="ring_S" to="sink_S" type="exit" numLanes="1" speed="12.00"/>
    <edge id="exit_W" from="ring_W" to="sink_W" type="exit" numLanes="1" speed="12.00"/>
</edges>
