<?xml version="1.0" ?>
<routes xmlns:xsi="http://www.w3.org/2001/XMLSchema-instance" xsi:noNamespaceSchemaLocation="http://sumo.dlr.de/xsd/routes_file.xsd">
  <vType id="passenger" vClass="passenger" accel="1.5" decel="2.0" sigma="0.5" length="5.0" width="1.8" minGap="2.0" maxSpeed="13.89" speedFactor="1.0" speedDev="0.1" tau="1.2" carFollowModel="IDM" color="0.8,0.8,0.0"/>
  <vType id="truck" vClass="truck" accel="1.0499999999999998" decel="1.6" sigma="0.5" length="12.0" width="2.5" minGap="3.0" maxSpeed="11.8065" speedFactor="0.9" speedDev="0.05" tau="1.44" carFollowModel="IDM" color="0.5,0.5,0.5"/>
  <vType id="bus" vClass="bus" accel="0.8999999999999999" decel="1.8" sigma="0.5" length="15.0" width="2.5" minGap="3.0" maxSpeed="11.112000000000002" speedFactor="0.85" speedDev="0.05" tau="1.56" carFollowModel="IDM" color="0.0,0.5,1.0"/>
  <route id="N_R" edges="north_in east_out"/>
  <route id="N_T" edges="north_in south_out"/>
  <route id="N_L" edges="north_in west_out"/>
  <route id="E_R" edges="east_in south_out"/>
  <route id="E_T" edges="east_in west_out"/>
  <route id="E_L" edges="east_in north_out"/>
  <route id="S_R" edges="south_in west_out"/>
  <route id="S_T" edges="south_in north_out"/>
  <route id="S_L" edges="south_in east_out"/>
  <route id="W_R" edges="west_in north_out"/>
  <route id="W_T" edges="west_in east_out"/>
  <route id="W_L" edges="west_in south_out"/>
  <flow id="flow_N_R_passenger" route="N_R" begin="0" end="3600.0" vehsPerHour="110.16" type="passenger" departLane="best" departSpeed="max"/>
  <flow id="flow_N_R_truck" route="N_R" begin="0" end="3600.0" vehsPerHour="12.96" type="truck" departLane="best" departSpeed="max"/>
  <flow id="flow_N_R_bus" route="N_R" begin="0" end="3600.0" vehsPerHour="6.48" type="bus" departLane="best" departSpeed="max"/>
  <flow id="flow_N_T_passenger" route="N_T" begin="0" end="3600.0" vehsPerHour="302.94" type="passenger" departLane="best" departSpeed="max"/>
  <flow id="flow_N_T_truck" route="N_T" begin="0" end="3600.0" vehsPerHour="35.64" type="truck" departLane="best" departSpeed="max"/>
  <flow id="flow_N_T_bus" route="N_T" begin="0" end="3600.0" vehsPerHour="17.82" type="bus" departLane="best" departSpeed="max"/>
  <flow id="flow_N_L_passenger" route="N_L" begin="0" end="3600.0" vehsPerHour="137.70" type="passenger" departLane="best" departSpeed="max"/>
  <flow id="flow_N_L_truck" route="N_L" begin="0" end="3600.0" vehsPerHour="16.20" type="truck" departLane="best" departSpeed="max"/>
  <flow id="flow_N_L_bus" route="N_L" begin="0" end="3600.0" vehsPerHour="8.10" type="bus" departLane="best" departSpeed="max"/>
  <flow id="flow_E_R_passenger" route="E_R" begin="0" end="3600.0" vehsPerHour="73.44" type="passenger" departLane="best" departSpeed="max"/>
  <flow id="flow_E_R_truck" route="E_R" begin="0" end="3600.0" vehsPerHour="8.64" type="truck" departLane="best" departSpeed="max"/>
  <flow id="flow_E_R_bus" route="E_R" begin="0" end="3600.0" vehsPerHour="4.32" type="bus" departLane="best" departSpeed="max"/>
  <flow id="flow_E_T_passenger" route="E_T" begin="0" end="3600.0" vehsPerHour="201.96" type="passenger" departLane="best" departSpeed="max"/>
  <flow id="flow_E_T_truck" route="E_T" begin="0" end="3600.0" vehsPerHour="23.76" type="truck" departLane="best" departSpeed="max"/>
  <flow id="flow_E_T_bus" route="E_T" begin="0" end="3600.0" vehsPerHour="11.88" type="bus" departLane="best" departSpeed="max"/>
  <flow id="flow_E_L_passenger" route="E_L" begin="0" end="3600.0" vehsPerHour="91.80" type="passenger" departLane="best" departSpeed="max"/>
  <flow id="flow_E_L_truck" route="E_L" begin="0" end="3600.0" vehsPerHour="10.80" type="truck" departLane="best" departSpeed="max"/>
  <flow id="flow_E_L_bus" route="E_L" begin="0" end="3600.0" vehsPerHour="5.40" type="bus" departLane="best" departSpeed="max"/>
  <flow id="flow_S_R_passenger" route="S_R" begin="0" end="3600.0" vehsPerHour="122.40" type="passenger" departLane="best" departSpeed="max"/>
  <flow id="flow_S_R_truck" route="S_R" begin="0" end="3600.0" vehsPerHour="14.40" type="truck" departLane="best" departSpeed="max"/>
  <flow id="flow_S_R_bus" route="S_R" begin="0" end="3600.0" vehsPerHour="7.20" type="bus" departLane="best" departSpeed="max"/>
  <flow id="flow_S_T_passenger" route="S_T" begin="0" end="3600.0" vehsPerHour="336.60" type="passenger" departLane="best" departSpeed="max"/>
  <flow id="flow_S_T_truck" route="S_T" begin="0" end="3600.0" vehsPerHour="39.60" type="truck" departLane="best" departSpeed="max"/>
  <flow id="flow_S_T_bus" route="S_T" begin="0" end="3600.0" vehsPerHour="19.80" type="bus" departLane="best" departSpeed="max"/>
  <flow id="flow_S_L_passenger" route="S_L" begin="0" end="3600.0" vehsPerHour="153.00" type="passenger" departLane="best" departSpeed="max"/>
  <flow id="flow_S_L_truck" route="S_L" begin="0" end="3600.0" vehsPerHour="18.00" type="truck" departLane="best" departSpeed="max"/>
  <flow id="flow_S_L_bus" route="S_L" begin="0" end="3600.0" vehsPerHour="9.00" type="bus" departLane="best" departSpeed="max"/>
  <flow id="flow_W_R_passenger" route="W_R" begin="0" end="3600.0" vehsPerHour="91.80" type="passenger" departLane="best" departSpeed="max"/>
  <flow id="flow_W_R_truck" route="W_R" begin="0" end="3600.0" vehsPerHour="10.80" type="truck" departLane="best" departSpeed="max"/>
  <flow id="flow_W_R_bus" route="W_R" begin="0" end="3600.0" vehsPerHour="5.40" type="bus" departLane="best" departSpeed="max"/>
  <flow id="flow_W_T_passenger" route="W_T" begin="0" end="3600.0" vehsPerHour="252.45" type="passenger" departLane="best" departSpeed="max"/>
  <flow id="flow_W_T_truck" route="W_T" begin="0" end="3600.0" vehsPerHour="29.70" type="truck" departLane="best" departSpeed="max"/>
  <flow id="flow_W_T_bus" route="W_T" begin="0" end="3600.0" vehsPerHour="14.85" type="bus" departLane="best" departSpeed="max"/>
  <flow id="flow_W_L_passenger" route="W_L" begin="0" end="3600.0" vehsPerHour="114.75" type="passenger" departLane="best" departSpeed="max"/>
  <flow id="flow_W_L_truck" route="W_L" begin="0" end="3600.0" vehsPerHour="13.50" type="truck" departLane="best" departSpeed="max"/>
  <flow id="flow_W_L_bus" route="W_L" begin="0" end="3600.0" vehsPerHour="6.75" type="bus" departLane="best" departSpeed="max"/>
</routes>
