<?xml version="1.0" ?>
<nodes>
  <node id="center" x="0.0" y="0.0" type="traffic_light" tl="center"/>
  <node id="north_end" x="0" y="200.0" type="priority"/>
  <node id="east_end" x="200.0" y="0" type="priority"/>
  <node id="south_end" x="0" y="-200.0" type="priority"/>
  <node id="west_end" x="-200.0" y="0" type="priority"/>
</nodes>
