<?xml version="1.0" ?>
<tlLogics>
  <tlLogic id="center" type="static" programID="0" offset="0">
    <phase duration="11.523809523809524" state="rrrGrrrrrrrGrrrr"/>
    <phase duration="3.0" state="rrryrrrrrrryrrrr"/>
    <phase duration="2.0" state="rrrrrrrrrrrrrrrr"/>
    <phase duration="34.57142857142857" state="GGGrGGGGGGGrGGGG"/>
    <phase duration="3.0" state="yyyryyyyyyyryyyy"/>
    <phase duration="2.0" state="rrrrrrrrrrrrrrrr"/>
    <phase duration="8.642857142857142" state="rrrrrrrGrrrrrrrG"/>
    <phase duration="3.0" state="rrrrrrryrrrrrrry"/>
    <phase duration="2.0" state="rrrrrrrrrrrrrrrr"/>
    <phase duration="25.928571428571427" state="rrrrGGGrGGGGGGGr"/>
    <phase duration="3.0" state="rrrryyyryyyyyyyr"/>
    <phase duration="2.0" state="rrrrrrrrrrrrrrrr"/>
  </tlLogic>
</tlLogics>
