<?xml version="1.0" ?>
<connections>
  <connection from="north_in" to="east_out" fromLane="0" toLane="0" dir="r"/>
  <connection from="north_in" to="south_out" fromLane="0" toLane="0" dir="s"/>
  <connection from="north_in" to="south_out" fromLane="1" toLane="1" dir="s"/>
  <connection from="north_in" to="west_out" fromLane="1" toLane="0" dir="l"/>
  <connection from="east_in" to="south_out" fromLane="0" toLane="0" dir="r"/>
  <connection from="east_in" to="west_out" fromLane="0" toLane="0" dir="s"/>
  <connection from="east_in" to="west_out" fromLane="1" toLane="1" dir="s"/>
  <connection from="east_in" to="north_out" fromLane="1" toLane="0" dir="l"/>
  <connection from="south_in" to="west_out" fromLane="0" toLane="0" dir="r"/>
  <connection from="south_in" to="north_out" fromLane="0" toLane="0" dir="s"/>
  <connection from="south_in" to="north_out" fromLane="1" toLane="1" dir="s"/>
  <connection from="south_in" to="east_out" fromLane="1" toLane="0" dir="l"/>
  <connection from="west_in" to="north_out" fromLane="0" toLane="0" dir="r"/>
  <connection from="west_in" to="east_out" fromLane="0" toLane="0" dir="s"/>
  <connection from="west_in" to="east_out" fromLane="1" toLane="1" dir="s"/>
  <connection from="west_in" to="south_out" fromLane="1" toLane="0" dir="l"/>
</connections>
