<?xml version="1.0" encoding="UTF-8"?>
<nodes>
    <node id="ring_N" x="0.00" y="27.50" type="priority"/>
    <node id="spawn_N" x="0.00" y="227.50" type="priority"/>
    <node id="sink_N" x="14.88" y="55.54" type="priority"/>
    <node id="ring_E" x="27.50" y="0.00" type="priority"/>
    <node id="spawn_E" x="227.50" y="0.00" type="priority"/>
    <node id="sink_E" x="55.54" y="-14.88" type="priority"/>
    <node id="ring_S" x="-0.00" y="-27.50" type="priority"/>
    <node id="spawn_S" x="-0.00" y="-227.50" type="priority"/>
    <node id="sink_S" x="-14.88" y="-55.54" type="priority"/>
    <node id="ring_W" x="-27.50" y="0.00" type="priority"/>
    <node id="spawn_W" x="-227.50" y="0.00" type="priority"/>
    <node id="sink_W" x="-55.54" y="14.88" type="priority"/>
</nodes>
